Version 4
SHEET 1 1892 680
WIRE 960 -32 944 -32
WIRE 64 0 -48 0
WIRE 1792 0 1536 0
WIRE 64 16 64 0
WIRE 384 16 112 16
WIRE 880 64 880 -32
WIRE 880 64 816 64
WIRE 960 64 960 -32
WIRE 960 64 944 64
WIRE 1136 64 960 64
WIRE 208 80 208 -16
WIRE 112 96 112 16
WIRE 144 96 112 96
WIRE 144 144 16 144
WIRE 288 144 272 144
WIRE 384 144 384 16
WIRE 384 144 368 144
WIRE 544 144 384 144
WIRE 816 144 816 64
WIRE 816 144 608 144
WIRE 1024 144 1024 32
WIRE 1136 144 1136 64
WIRE 1280 144 1136 144
WIRE 1536 144 1536 80
WIRE 1536 144 1360 144
WIRE 1632 144 1536 144
WIRE 816 160 816 144
WIRE 880 160 816 160
WIRE 960 160 960 144
WIRE 960 160 944 160
WIRE 992 160 960 160
WIRE 1792 160 1792 0
WIRE 1792 160 1696 160
WIRE 1136 176 1136 144
WIRE 1136 176 1056 176
WIRE 1632 176 1440 176
WIRE 64 192 64 80
WIRE 144 192 64 192
WIRE 992 192 976 192
WIRE 16 240 16 144
WIRE 208 240 208 208
WIRE 1024 240 1024 208
WIRE 1328 240 1280 240
WIRE 1440 240 1440 176
WIRE 1440 240 1408 240
WIRE 1456 240 1440 240
WIRE 976 304 976 192
FLAG -48 80 0
FLAG 208 -96 0
FLAG 208 320 0
FLAG 16 240 0
FLAG 976 304 0
FLAG 816 240 0
FLAG 1024 -48 0
FLAG 1024 320 0
FLAG 1456 320 0
FLAG 1280 320 0
FLAG 1664 192 0
FLAG 1664 48 0
FLAG 1792 160 Out
IOPIN 1792 160 Out
SYMBOL res 384 128 R90
WINDOW 0 0 56 VBottom 2
WINDOW 3 32 56 VTop 2
SYMATTR InstName R2
SYMATTR Value 1K
SYMBOL Opamps\\ADA4530-1 208 144 R0
SYMATTR InstName U1
SYMBOL voltage 208 336 R180
WINDOW 0 24 96 Left 2
WINDOW 3 24 16 Left 2
WINDOW 123 0 0 Left 0
WINDOW 39 0 0 Left 0
SYMATTR InstName V1
SYMATTR Value 4
SYMBOL voltage 208 0 R180
WINDOW 0 24 96 Left 2
WINDOW 3 24 16 Left 2
WINDOW 123 0 0 Left 0
WINDOW 39 0 0 Left 0
SYMATTR InstName V2
SYMATTR Value 4
SYMBOL voltage -48 -16 R0
WINDOW 3 -475 102 Left 2
WINDOW 123 0 0 Left 0
WINDOW 39 0 0 Left 0
SYMATTR InstName V3
SYMATTR Value SINE(0 20µ 7 0 0 0 30)
SYMBOL cap 48 16 R0
SYMATTR InstName C1
SYMATTR Value 4µ
SYMATTR SpiceLine V=450
SYMBOL res 944 48 R0
SYMATTR InstName R1
SYMATTR Value 200K
SYMBOL cap 944 144 R90
WINDOW 0 0 32 VBottom 2
WINDOW 3 32 32 VTop 2
SYMATTR InstName C2
SYMATTR Value 1µ
SYMBOL cap 944 48 R90
WINDOW 0 0 32 VBottom 2
WINDOW 3 32 32 VTop 2
SYMATTR InstName C3
SYMATTR Value 120n
SYMBOL cap 944 -48 R90
WINDOW 0 0 32 VBottom 2
WINDOW 3 32 32 VTop 2
SYMATTR InstName C4
SYMATTR Value 22n
SYMBOL res 800 144 R0
SYMATTR InstName R3
SYMATTR Value 100k
SYMBOL voltage 1024 48 R180
WINDOW 0 24 96 Left 2
WINDOW 3 24 16 Left 2
SYMATTR InstName V5
SYMATTR Value 5
SYMBOL Opamps\\AD8642 1024 112 R0
SYMATTR InstName U2
SYMBOL Opamps\\AD8642 1664 96 R0
SYMATTR InstName U3
SYMBOL res 1376 128 R90
WINDOW 0 0 56 VBottom 2
WINDOW 3 32 56 VTop 2
SYMATTR InstName R4
SYMATTR Value 240K
SYMBOL res 1472 336 R180
WINDOW 0 36 76 Left 2
WINDOW 3 36 40 Left 2
SYMATTR InstName R5
SYMATTR Value 120K
SYMBOL res 1424 224 R90
WINDOW 0 0 56 VBottom 2
WINDOW 3 32 56 VTop 2
SYMATTR InstName R6
SYMATTR Value 270K
SYMBOL res 1520 -16 R0
SYMATTR InstName R7
SYMATTR Value 150K
SYMBOL voltage 1280 224 R0
WINDOW 123 0 0 Left 0
WINDOW 39 0 0 Left 0
SYMATTR InstName V6
SYMATTR Value 5
SYMBOL voltage 1664 144 R180
WINDOW 0 24 96 Left 2
WINDOW 3 24 16 Left 2
WINDOW 123 0 0 Left 0
WINDOW 39 0 0 Left 0
SYMATTR InstName V7
SYMATTR Value 5
SYMBOL voltage 1024 224 R0
SYMATTR InstName V4
SYMATTR Value -5
SYMBOL cap 608 128 R90
WINDOW 0 0 32 VBottom 2
WINDOW 3 32 32 VTop 2
SYMATTR InstName C5
SYMATTR Value 100n
TEXT 896 -184 Left 2 !.tran 0 5 0 10
